% ============================================================
%  SU2 v8 — DDES Spalart-Allmaras (fase 4 pipeline)
%  Mesh L3 (~3M celle), HPC preferito (laptop borderline)
%  Obiettivo: verifica pendenza -5/3 nello shear layer
% ============================================================

SOLVER= INC_RANS
KIND_TURB_MODEL= SA
HYBRID_RANSLES= SA_DDES
MATH_PROBLEM= DIRECT
RESTART_SOL= YES

INC_DENSITY_MODEL= CONSTANT
INC_DENSITY_INIT= 1.225
INC_VELOCITY_INIT= (0.0, 0.0, -10.0)
VISCOSITY_MODEL= CONSTANT_VISCOSITY
MU_CONSTANT= 1.8375E-5

TIME_DOMAIN= YES
TIME_MARCHING= DUAL_TIME_STEPPING-2ND_ORDER
TIME_STEP= 5.0E-6
MAX_TIME= 0.040
INNER_ITER= 25
CONV_RESIDUAL_MINVAL= -5

CFL_NUMBER= 15.0
NUM_METHOD_GRAD= WEIGHTED_LEAST_SQUARES
MUSCL_FLOW= YES
SLOPE_LIMITER_FLOW= NONE
CONV_NUM_METHOD_FLOW= ROE
TIME_DISCRE_FLOW= EULER_IMPLICIT

MARKER_INLET= ( jet_inlet, 293.15, 10.0, 0.0, 0.0, -1.0 )
MARKER_OUTLET= ( lateral_outlet, 0.0 )
MARKER_HEATFLUX= ( chip_wall, 0.0 )
MARKER_HEATFLUX= ( top_plate, 0.0 )
MARKER_HEATFLUX= ( inlet_tube_wall, 0.0 )

OUTPUT_WRT_FREQ= 200
VOLUME_OUTPUT= COORDINATES, SOLUTION, PRIMITIVE, VORTICITY, Q_CRITERION
SCREEN_OUTPUT= (INNER_ITER, RMS_PRESSURE, RMS_VELOCITY-X, LINSOL_RESIDUAL)
HISTORY_OUTPUT= ITER, RMS_RES, AERO_COEFF
