% ============================================================
%  SU2 v8 — LES wall-resolved (WALE) + FW-H aeroacustico
%  Jet impingente D_jet=1.5mm, U=10 m/s, Re=1000
%  Mesh target L5 (~12M celle), HPC 256-512 core obbligatorio
% ============================================================

% ---------------- SOLVER ----------------
SOLVER= INC_NAVIER_STOKES
KIND_TURB_MODEL= NONE
KIND_SGS_MODEL= WALE
MATH_PROBLEM= DIRECT
RESTART_SOL= YES

% ---------------- INCOMPRESSIBILE ----------------
INC_DENSITY_MODEL= CONSTANT
INC_DENSITY_INIT= 1.225
INC_VELOCITY_INIT= (0.0, 0.0, -10.0)
INC_NONDIM= DIMENSIONAL
VISCOSITY_MODEL= CONSTANT_VISCOSITY
MU_CONSTANT= 1.8375E-5

% ---------------- TIME MARCHING ----------------
TIME_DOMAIN= YES
TIME_MARCHING= DUAL_TIME_STEPPING-2ND_ORDER
TIME_STEP= 5.0E-7
MAX_TIME= 0.050                  % 50 ms totali
INNER_ITER= 20
CONV_RESIDUAL_MINVAL= -6

% ---------------- NUMERICS (bassa dissipazione) ----------------
NUM_METHOD_GRAD= WEIGHTED_LEAST_SQUARES
CFL_NUMBER= 10.0
MUSCL_FLOW= YES
SLOPE_LIMITER_FLOW= NONE
CONV_NUM_METHOD_FLOW= FDS
TIME_DISCRE_FLOW= EULER_IMPLICIT
JST_SENSOR_COEFF= (0.0, 0.02)

% ---------------- BOUNDARY CONDITIONS ----------------
MARKER_INLET= ( jet_inlet, 293.15, 10.0, 0.0, 0.0, -1.0 )
MARKER_OUTLET= ( lateral_outlet, 0.0 )
MARKER_HEATFLUX= ( chip_wall, 0.0 )
MARKER_HEATFLUX= ( top_plate, 0.0 )
MARKER_HEATFLUX= ( inlet_tube_wall, 0.0 )

% ---------------- FW-H ACUSTICA ----------------
ACOUSTIC_ANALOGY= FWH
MARKER_ACOUSTIC= ( fwh_surface )
OBSERVER_LOCATIONS= fwh_observers.dat
FREQ_LIMIT_FWH= 25000

% ---------------- OUTPUT ----------------
OUTPUT_WRT_FREQ= 200
VOLUME_OUTPUT= COORDINATES, SOLUTION, PRIMITIVE, VORTICITY, Q_CRITERION
SCREEN_OUTPUT= (INNER_ITER, RMS_PRESSURE, RMS_VELOCITY-X, LINSOL_RESIDUAL)
HISTORY_OUTPUT= ITER, RMS_RES, AERO_COEFF
